<?xml version="1.0" encoding="UTF-8"?>

<configuration xmlns:xsi="http://www.w3.org/2001/XMLSchema-instance" xsi:noNamespaceSchemaLocation="http://sumo.dlr.de/xsd/sumoConfiguration.xsd">
    <input>
        <net-file value="simulation.net.xml"/>
        <route-files value="simulation.rou.xml"/>
		<additional-files value="simulation.det.xml"/>
    </input>
    <time>
        <begin value="0"/>
    </time>
</configuration>