<additional>
  <inductionLoop id="myLoop1" lane="A1B1_0" pos="50" freq="30" file="out.xml"/>
</additional> 